_chemical_name_mineral 'Cristobalite high'
loop_
_publ_section_title
;
 The Cristobalite Structures. I. High-Cristobalite Fd3m ideal cubic
cristobalite beta
;
_chemical_formula_sum 'Si O2'
_cell_length_a 7.352
_cell_length_b 7.352
_cell_length_c 7.352
_cell_angle_alpha 90
_cell_angle_beta 90
_cell_angle_gamma 90
_symmetry_space_group_name_H-M 'P 21 3'
loop_
_space_group_symop_operation_xyz
  'x,y,z'
  '1/2-z,-x,1/2+y'
  '-z,1/2+x,1/2-y'
  '1/2+z,1/2-x,-y'
  'z,x,y'
  '1/2+y,1/2-z,-x'
  '1/2-y,-z,1/2+x'
  '-y,1/2+z,1/2-x'
  'y,z,x'
  '-x,1/2+y,1/2-z'
  '1/2+x,1/2-y,-z'
  '1/2-x,-y,1/2+z'
loop_
_atom_site_label
_atom_site_fract_x
_atom_site_fract_y
_atom_site_fract_z
Si1   0.2500  0.2500 0.2500
Si2   0.0000  0.0000 0.0000
O1    0.1250  0.1250 0.1250 
O2    0.6250  0.6250 0.1250
